Vconf v2.0 Academic SN VC001-00000579
 55 57  0  0  0  0  0  0  0  0999 V2000
   -0.3370    3.2490    0.9700 C   0  0  0  0  0  0  0  0  0  0  0
   -1.8530    1.4720    0.3990 C   0  0  0  0  0  0  0  0  0  0  0
   -1.5910    2.7560    0.7660 N   0  0  0  0  0  0  0  0  0  0  0
   -0.8250    0.6080    0.2170 N   0  0  0  0  0  0  0  0  0  0  0
    0.7270    2.3440    0.7850 C   0  0  0  0  0  0  0  0  0  0  0
    0.4420    1.0390    0.4080 C   0  0  0  0  0  0  0  0  0  0  0
    2.5740    1.2710    0.5980 C   0  0  0  0  0  0  0  0  0  0  0
    2.0580    2.4770    0.8990 N   0  0  0  0  0  0  0  0  0  0  0
    1.6050    0.3820    0.2950 N   0  0  0  0  0  0  0  0  0  0  0
    1.7770   -0.9870   -0.0710 C   0  0  0  0  0  0  0  0  0  0  0
    2.6190   -1.1100   -1.3530 C   0  0  0  0  0  0  0  0  0  0  0
    2.4330   -1.7800    1.0710 C   0  0  0  0  0  0  0  0  0  0  0
   -0.1820    4.5680    1.3320 N   0  0  0  0  0  0  0  0  0  0  0
   -1.3270    5.4270    1.4730 C   0  0  0  0  0  0  0  0  0  0  0
   -2.1210    5.1260    2.6840 C   0  0  0  0  0  0  0  0  0  0  0
   -3.6250    4.5440    5.0000 C   0  0  0  0  0  0  0  0  0  0  0
   -2.2710    4.9010    5.1120 C   0  0  0  0  0  0  0  0  0  0  0
   -1.5230    5.1930    3.9590 C   0  0  0  0  0  0  0  0  0  0  0
   -3.4830    4.7760    2.5820 C   0  0  0  0  0  0  0  0  0  0  0
   -4.2310    4.4820    3.7350 C   0  0  0  0  0  0  0  0  0  0  0
   -3.1100    1.0240    0.2200 N   0  0  0  0  0  0  0  0  0  0  0
   -4.2760    1.8140    0.4270 C   0  0  2  0  0  0  0  0  0  0  0
   -5.5120    0.8960    0.3970 C   0  0  0  0  0  0  0  0  0  0  0
   -5.4810   -0.1280    1.5410 C   0  0  0  0  0  0  0  0  0  0  0
   -4.4140    2.9050   -0.6530 C   0  0  0  0  0  0  0  0  0  0  0
   -5.5590    3.7090   -0.3970 O   0  0  0  0  0  0  0  0  0  0  0
    1.1140    5.1340    1.5520 C   0  0  0  0  0  0  0  0  0  0  0
    3.5720    1.0580    0.5990 H   0  0  0  0  0  0  0  0  0  0  0
    0.8040   -1.4400   -0.2710 H   0  0  0  0  0  0  0  0  0  0  0
    2.6820   -2.1580   -1.6490 H   0  0  0  0  0  0  0  0  0  0  0
    2.1470   -0.5410   -2.1550 H   0  0  0  0  0  0  0  0  0  0  0
    3.6250   -0.7260   -1.1820 H   0  0  0  0  0  0  0  0  0  0  0
    2.5060   -2.8310    0.7920 H   0  0  0  0  0  0  0  0  0  0  0
    3.4320   -1.3940    1.2740 H   0  0  0  0  0  0  0  0  0  0  0
    1.8240   -1.6930    1.9720 H   0  0  0  0  0  0  0  0  0  0  0
   -1.0130    6.4700    1.5410 H   0  0  0  0  0  0  0  0  0  0  0
   -1.9450    5.3440    0.5760 H   0  0  0  0  0  0  0  0  0  0  0
   -4.1680    4.3310    5.8380 H   0  0  0  0  0  0  0  0  0  0  0
   -1.8290    4.9470    6.0310 H   0  0  0  0  0  0  0  0  0  0  0
   -0.5390    5.4480    4.0470 H   0  0  0  0  0  0  0  0  0  0  0
   -3.9310    4.7280    1.6670 H   0  0  0  0  0  0  0  0  0  0  0
   -5.2150    4.2230    3.6510 H   0  0  0  0  0  0  0  0  0  0  0
   -3.2260    0.0920   -0.0210 H   0  0  0  0  0  0  0  0  0  0  0
   -4.2250    2.2880    1.4090 H   0  0  0  0  0  0  0  0  0  0  0
   -6.4120    1.5030    0.5050 H   0  0  0  0  0  0  0  0  0  0  0
   -5.5550    0.3700   -0.5570 H   0  0  0  0  0  0  0  0  0  0  0
   -6.3880   -0.7330    1.5080 H   0  0  0  0  0  0  0  0  0  0  0
   -4.6130   -0.7790    1.4370 H   0  0  0  0  0  0  0  0  0  0  0
   -5.4320    0.3920    2.4980 H   0  0  0  0  0  0  0  0  0  0  0
   -3.5350    3.5490   -0.6510 H   0  0  0  0  0  0  0  0  0  0  0
   -4.5120    2.4400   -1.6350 H   0  0  0  0  0  0  0  0  0  0  0
   -5.7040    4.4240   -1.0520 H   0  0  0  0  0  0  0  0  0  0  0
    1.0500    6.1830    1.8410 H   0  0  0  0  0  0  0  0  0  0  0
    1.6200    4.5960    2.3560 H   0  0  0  0  0  0  0  0  0  0  0
    1.7090    5.0670    0.6400 H   0  0  0  0  0  0  0  0  0  0  0
  1  3  1  0  0  0  0
  1  5  2  0  0  0  0
  1 13  1  0  0  0  0
  2  3  2  0  0  0  0
  2  4  1  0  0  0  0
  2 21  1  0  0  0  0
  4  6  2  0  0  0  0
  5  6  1  0  0  0  0
  5  8  1  0  0  0  0
  6  9  1  0  0  0  0
  7  8  2  0  0  0  0
  7  9  1  0  0  0  0
  7 28  1  0  0  0  0
  9 10  1  0  0  0  0
 10 11  1  0  0  0  0
 10 12  1  0  0  0  0
 10 29  1  0  0  0  0
 11 30  1  0  0  0  0
 11 31  1  0  0  0  0
 11 32  1  0  0  0  0
 12 33  1  0  0  0  0
 12 34  1  0  0  0  0
 12 35  1  0  0  0  0
 13 14  1  0  0  0  0
 13 27  1  0  0  0  0
 14 15  1  0  0  0  0
 14 36  1  0  0  0  0
 14 37  1  0  0  0  0
 15 18  2  0  0  0  0
 15 19  1  0  0  0  0
 16 17  2  0  0  0  0
 16 20  1  0  0  0  0
 16 38  1  0  0  0  0
 17 18  1  0  0  0  0
 17 39  1  0  0  0  0
 18 40  1  0  0  0  0
 19 20  2  0  0  0  0
 19 41  1  0  0  0  0
 20 42  1  0  0  0  0
 22 21  1  1  0  0  0
 21 43  1  0  0  0  0
 22 23  1  0  0  0  0
 22 25  1  0  0  0  0
 22 44  1  0  0  0  0
 23 24  1  0  0  0  0
 23 45  1  0  0  0  0
 23 46  1  0  0  0  0
 24 47  1  0  0  0  0
 24 48  1  0  0  0  0
 24 49  1  0  0  0  0
 25 26  1  0  0  0  0
 25 50  1  0  0  0  0
 25 51  1  0  0  0  0
 26 52  1  0  0  0  0
 27 53  1  0  0  0  0
 27 54  1  0  0  0  0
 27 55  1  0  0  0  0
M  END
> <From>
www.bindingDB.org

> <BindingDB Reactant_set_id>
50976776

> <Ligand InChI>
InChI=1S/C20H28N6O/c1-5-16(12-27)22-20-23-18(25(4)11-15-9-7-6-8-10-15)17-19(24-20)26(13-21-17)14(2)3/h6-10,13-14,16,27H,5,11-12H2,1-4H3,(H,22,23,24)/t16-/m1/s1

> <Ligand InChI Key>
YPYWONAECUVKHY-MRXNPFEDSA-N

> <BindingDB MonomerID>
10909

> <BindingDB Ligand Name>
(2R)-2-({6-[benzyl(methyl)amino]-9-(propan-2-yl)-9H-purin-2-yl}amino)butan-1-ol::N6-methyl-(R)-roscovitine::R-2-[6-(Benzyl-methyl-amino)-9-isopropyl-9H-purin-2-ylamino]-butan-1-ol

> <Target Name Assigned by Curator or DataSource>
Voltage-gated calcium channel

> <Target Source Organism According to Curator or DataSource>
Homo sapiens

> <Ki (nM)>


> <IC50 (nM)>


> <Kd (nM)>


> <EC50 (nM)>
>1000000

> <kon (M-1-s-1)>


> <koff (s-1)>


> <pH>


> <Temp C>


> <Curation/DataSource>
ChEMBL

> <Article DOI>


> <PMID>


> <PubChem AID>


> <Patent Number>


> <Authors>
n/a

> <Institution>
n/a

> <Link to Ligand in BindingDB>
http://www.bindingdb.org/bind/chemsearch/marvin/MolStructure.jsp?monomerid=10909

> <Link to Ligand-Target Pair in BindingDB>
http://www.bindingdb.org/jsp/dbsearch/PrimarySearch_ki.jsp?energyterm=kJ/mole&tag=pol&polymerid=50000700&target=Voltage-gated+calcium+channel&column=ki&startPg=0&Increment=50&submit=Search

> <Link to Ligand-Target Pair in BindingDB>
http://www.bindingdb.org/jsp/dbsearch/PrimarySearch_ki.jsp?energyterm=kJ/mole&tag=r21&monomerid=10909&enzyme=Voltage-gated+calcium+channel&column=ki&startPg=0&Increment=50&submit=Search

> <Ligand HET ID in PDB>
RMC

> <PDB ID(s) for Ligand-Target Complex>
1YGJ

> <PubChem CID>
5289296

> <PubChem SID>
46511479

> <ChEBI ID of Ligand>


> <ChEMBL ID of Ligand>


> <DrugBank ID of Ligand>
DB04776

> <IUPHAR_GRAC ID of Ligand>


> <KEGG ID of Ligand>


> <ZINC ID of Ligand>
ZINC12504508

> <Number of Protein Chains in Target (>1 implies a multichain complex)>
1

> <BindingDB Target Chain Sequence>
MVRFGDELGGRYGGPGGGERARGGGAGGAGGPGPGGLQPGQRVLYKQSIAQRARTMALYNPIPVKQNCFTVNRSLFVFSEDNVVRKYAKRITEWPPFEYMILATIIANCIVLALEQHLPDGDKTPMSERLDDTEPYFIGIFCFEAGIKIIALGFVFHKGSYLRNGWNVMDFVVVLTGILATAGTDFDLRTLRAVRVLRPLKLVSGIPSLQVVLKSIMKAMVPLLQIGLLLFFAILMFAIIGLEFYMGKFHKACFPNSTDAEPVGDFPCGKEAPARLCEGDTECREYWPGPNFGITNFDNILFAILTVFQCITMEGWTDILYNTNDAAGNTWNWLYFIPLIIIGSFFMLNLVLGVLSGEFAKERERVENRRAFLKLRRQQQIERELNGYLEWIFKAEEVMLAEEDRNAEEKSPLDVLKRAATKKSRNDLIHAEEGEDRFADLCAVGSPFARASLKSGKTESSSYFRRKEKMFRFFIRRMVKAQSFYWVVLCVVALNTLCVAMVHYNQPRRLTTTLYFAEFVFLGLFLTEMSLKMYGLGPRSYFRSSFNCFDFGVIVGSVFEVVWAAIKPGSSFGISVLRALRLLRIFKVTKYWSSLRNLVVSLLNSMKSIISLLFLLFLFIVVFALLGMQLFGGQFNFQDETPTTNFDTFPAAILTVFQILTGEDWNAVMYHGIESQGGVSKGMFSSFYFIVLTLFGNYTLLNVFLAIAVDNLANAQELTKDEEEMEEAANQKLALQKAKEVAEVSPMSAANISIAARQQNSAKARSVWEQRASQLRLQNLRASCEALYSEMDPEERLRFATTRHLRPDMKTHLDRPLVVELGRDGARGPVGGKARPEAAEAPEGVDPPRRHHRHRDKDKTPAAGDQDRAEAPKAESGEPGAREERPRPHRSHSKEAAGPPEARSERGRGPGPEGGRRHHRRGSPEEAAEREPRRHRAHRHQDPSKECAGAKGERRARHRGGPRAGPREAESGEEPARRHRARHKAQPAHEAVEKETTEKEATEKEAEIVEADKEKELRNHQPREPHCDLETSGTVTVGPMHTLPSTCLQKVEEQPEDADNQRNVTRMGSQPPDPNTIVHIPVMLTGPLGEATVVPSGNVDLESQAEGKKEVEADDVMRSGPRPIVPYSSMFCLSPTNLLRRFCHYIVTMRYFEVVILVVIALSSIALAAEDPVRTDSPRNNALKYLDYIFTGVFTFEMVIKMIDLGLLLHPGAYFRDLWNILDFIVVSGALVAFAFSGSKGKDINTIKSLRVLRVLRPLKTIKRLPKLKAVFDCVVNSLKNVLNILIVYMLFMFIFAVIAVQLFKGKFFYCTDESKELERDCRGQYLDYEKEEVEAQPRQWKKYDFHYDNVLWALLTLFTVSTGEGWPMVLKHSVDATYEEQGPSPGYRMELSIFYVVYFVVFPFFFVNIFVALIIITFQEQGDKVMSECSLEKNERACIDFAISAKPLTRYMPQNRQSFQYKTWTFVVSPPFEYFIMAMIALNTVVLMMKFYDAPYEYELMLKCLNIVFTSMFSMECVLKIIAFGVLNYFRDAWNVFDFVTVLGSITDILVTEIAETNNFINLSFLRLFRAARLIKLLRQGYTIRILLWTFVQSFKALPYVCLLIAMLFFIYAIIGMQVFGNIALDDDTSINRHNNFRTFLQALMLLFRSATGEAWHEIMLSCLSNQACDEQANATECGSDFAYFYFVSFIFLCSFLMLNLFVAVIMDNFEYLTRDSSILGPHHLDEFIRVWAEYDPAACGRISYNDMFEMLKHMSPPLGLGKKCPARVAYKRLVRMNMPISNEDMTVHFTSTLMALIRTALEIKLAPAGTKQHQCDAELRKEISVVWANLPQKTLDLLVPPHKPDEMTVGKVYAALMIFDFYKQNKTTRDQMQQAPGGLSQMGPVSLFHPLKATLEQTQPAVLRGARVFLRQKSSTSLSNGGAIQNQESGIKESVSWGTQRTQDAPHEARPPLERGHSTEIPVGRSGALAVDVQMQSITRRGPDGEPQPGLESQGRAASMPRLAAETQPVTDASPMKRSISTLAQRPRGTHLCSTTPDRPPPSQASSHHHHHRCHRRRDRKQRSLEKGPSLSADMDGAPSSAVGPGLPPGEGPTGCRRERERRQERGRSQERRQPSSSSSEKQRFYSCDRFGGREPPKPKPSLSSHPTSPTAGQEPGPHPQGSGSVNGSPLLSTSGASTPGRGGRRQLPQTPLTPRPSITYKTANSSPIHFAGAQTSLPAFSPGRLSRGLSEHNALLQRDPLSQPLAPGSRIGSDPYLGQRLDSEASVHALPEDTLTFEEAVATNSGRSSRTSYVSSLTSQSHPLRRVPNGYHCTLGLSSGGRARHSYHHPDQDHWC

> <PDB ID(s) of Target Chain>


> <UniProt (SwissProt) Recommended Name of Target Chain>
Voltage-dependent N-type calcium channel subunit alpha-1B

> <UniProt (SwissProt) Entry Name of Target Chain>
CAC1B_HUMAN

> <UniProt (SwissProt) Primary ID of Target Chain>
Q00975

> <UniProt (SwissProt) Secondary ID(s) of Target Chain>
B1AQK5

> <UniProt (SwissProt) Alternative ID(s) of Target Chain>


> <UniProt (TrEMBL) Submitted Name of Target Chain>


> <UniProt (TrEMBL) Entry Name of Target Chain>


> <UniProt (TrEMBL) Primary ID of Target Chain>


> <UniProt (TrEMBL) Secondary ID(s) of Target Chain>


> <UniProt (TrEMBL) Alternative ID(s) of Target Chain>


$$$$
