6-arylpyrido_2_3-d_pyrimidine

Vconf v2.0 Academic SN VC001-00000579
 68 70  0  0  0  0  0  0  0  0999 V2000
   -0.4760    3.0830   -0.2590 C   0  0  0  0  0  0  0  0  0  0  0
   -1.4130    1.0610   -1.0660 C   0  0  0  0  0  0  0  0  0  0  0
    0.5430    2.3720    0.3930 C   0  0  0  0  0  0  0  0  0  0  0
    0.5300    0.9670    0.2690 C   0  0  0  0  0  0  0  0  0  0  0
    1.5600    2.9770    1.1510 C   0  0  0  0  0  0  0  0  0  0  0
    2.4990    0.7810    1.6170 C   0  0  0  0  0  0  0  0  0  0  0
    2.5510    2.1880    1.7740 C   0  0  0  0  0  0  0  0  0  0  0
   -1.4190    2.4130   -0.9660 N   0  0  0  0  0  0  0  0  0  0  0
   -0.4390    0.3530   -0.4490 N   0  0  0  0  0  0  0  0  0  0  0
    1.4960    0.2390    0.8760 N   0  0  0  0  0  0  0  0  0  0  0
    3.5680    2.8210    2.5390 C   0  0  0  0  0  0  0  0  0  0  0
    5.6980    4.0270    2.6690 C   0  0  0  0  0  0  0  0  0  0  0
    4.6930    3.4110    1.8990 C   0  0  0  0  0  0  0  0  0  0  0
    3.4820    2.8630    3.9590 C   0  0  0  0  0  0  0  0  0  0  0
    4.5000    3.4840    4.7080 C   0  0  0  0  0  0  0  0  0  0  0
    5.6020    4.0640    4.0660 C   0  0  0  0  0  0  0  0  0  0  0
    4.9210    3.4040    0.2140 Cl  0  0  0  0  0  0  0  0  0  0  0
    2.1880    2.1970    4.8380 Cl  0  0  0  0  0  0  0  0  0  0  0
   -2.3480    0.3950   -1.7660 N   0  0  0  0  0  0  0  0  0  0  0
   -3.3950    1.0360   -2.4760 C   0  0  0  0  0  0  0  0  0  0  0
   -4.2980   -0.0060   -3.1590 C   0  0  0  0  0  0  0  0  0  0  0
   -3.5450   -0.8110   -4.2340 C   0  0  0  0  0  0  0  0  0  0  0
   -2.4740   -1.6400   -3.6360 N   0  0  0  0  0  0  0  0  0  0  0
   -3.0160   -2.8950   -3.0720 C   0  0  0  0  0  0  0  0  0  0  0
   -2.1080   -3.4070   -1.9450 C   0  0  0  0  0  0  0  0  0  0  0
   -1.3940   -1.9070   -4.6100 C   0  0  0  0  0  0  0  0  0  0  0
   -0.4470   -0.7030   -4.6920 C   0  0  0  0  0  0  0  0  0  0  0
    3.4480    0.0020    2.2040 N   0  0  0  0  0  0  0  0  0  0  0
    3.5470   -1.3460    2.1430 C   0  0  0  0  0  0  0  0  0  0  0
    2.7370   -2.0560    1.5060 O   0  0  0  0  0  0  0  0  0  0  0
    4.5770   -1.9120    2.8100 N   0  0  0  0  0  0  0  0  0  0  0
    5.1700   -3.8800    1.4690 C   0  0  0  0  0  0  0  0  0  0  0
    6.1210   -3.4690    3.7390 C   0  0  0  0  0  0  0  0  0  0  0
    4.8630   -3.3080    2.8670 C   0  0  0  0  0  0  0  0  0  0  0
    3.7140   -4.0960    3.5250 C   0  0  0  0  0  0  0  0  0  0  0
   -0.5150    4.1020   -0.2060 H   0  0  0  0  0  0  0  0  0  0  0
    1.5790    3.9940    1.2510 H   0  0  0  0  0  0  0  0  0  0  0
    6.5110    4.4530    2.2190 H   0  0  0  0  0  0  0  0  0  0  0
    4.4470    3.5210    5.7280 H   0  0  0  0  0  0  0  0  0  0  0
    6.3350    4.5130    4.6170 H   0  0  0  0  0  0  0  0  0  0  0
   -2.2880   -0.5720   -1.8040 H   0  0  0  0  0  0  0  0  0  0  0
   -4.0000    1.6220   -1.7830 H   0  0  0  0  0  0  0  0  0  0  0
   -2.9760    1.7000   -3.2340 H   0  0  0  0  0  0  0  0  0  0  0
   -4.7080   -0.6760   -2.4040 H   0  0  0  0  0  0  0  0  0  0  0
   -5.1240    0.5190   -3.6390 H   0  0  0  0  0  0  0  0  0  0  0
   -4.2520   -1.4480   -4.7690 H   0  0  0  0  0  0  0  0  0  0  0
   -3.1270   -0.0990   -4.9450 H   0  0  0  0  0  0  0  0  0  0  0
   -4.0030   -2.7250   -2.6430 H   0  0  0  0  0  0  0  0  0  0  0
   -3.1050   -3.6560   -3.8490 H   0  0  0  0  0  0  0  0  0  0  0
   -2.5570   -4.2930   -1.4950 H   0  0  0  0  0  0  0  0  0  0  0
   -1.1250   -3.6660   -2.3350 H   0  0  0  0  0  0  0  0  0  0  0
   -2.0010   -2.6350   -1.1830 H   0  0  0  0  0  0  0  0  0  0  0
   -0.8010   -2.7670   -4.2960 H   0  0  0  0  0  0  0  0  0  0  0
   -1.8120   -2.1190   -5.5960 H   0  0  0  0  0  0  0  0  0  0  0
    0.3790   -0.9380   -5.3640 H   0  0  0  0  0  0  0  0  0  0  0
   -0.9740    0.1730   -5.0690 H   0  0  0  0  0  0  0  0  0  0  0
   -0.0500   -0.4840   -3.7000 H   0  0  0  0  0  0  0  0  0  0  0
    4.1260    0.4620    2.7200 H   0  0  0  0  0  0  0  0  0  0  0
    5.1740   -1.3190    3.2900 H   0  0  0  0  0  0  0  0  0  0  0
    5.4980   -4.9170    1.5580 H   0  0  0  0  0  0  0  0  0  0  0
    4.2800   -3.8490    0.8410 H   0  0  0  0  0  0  0  0  0  0  0
    5.9600   -3.2960    0.9960 H   0  0  0  0  0  0  0  0  0  0  0
    6.3850   -4.5240    3.8190 H   0  0  0  0  0  0  0  0  0  0  0
    6.9550   -2.9270    3.2910 H   0  0  0  0  0  0  0  0  0  0  0
    5.9340   -3.0740    4.7380 H   0  0  0  0  0  0  0  0  0  0  0
    4.0100   -5.1370    3.6590 H   0  0  0  0  0  0  0  0  0  0  0
    3.4810   -3.6650    4.4990 H   0  0  0  0  0  0  0  0  0  0  0
    2.8230   -4.0640    2.8990 H   0  0  0  0  0  0  0  0  0  0  0
  1  3  2  0  0  0  0
  1  8  1  0  0  0  0
  1 36  1  0  0  0  0
  2  8  2  0  0  0  0
  2  9  1  0  0  0  0
  2 19  1  0  0  0  0
  3  4  1  0  0  0  0
  3  5  1  0  0  0  0
  4  9  2  0  0  0  0
  4 10  1  0  0  0  0
  5  7  2  0  0  0  0
  5 37  1  0  0  0  0
  6  7  1  0  0  0  0
  6 10  2  0  0  0  0
  6 28  1  0  0  0  0
  7 11  1  0  0  0  0
 11 13  2  0  0  0  0
 11 14  1  0  0  0  0
 12 13  1  0  0  0  0
 12 16  2  0  0  0  0
 12 38  1  0  0  0  0
 13 17  1  0  0  0  0
 14 15  2  0  0  0  0
 14 18  1  0  0  0  0
 15 16  1  0  0  0  0
 15 39  1  0  0  0  0
 16 40  1  0  0  0  0
 19 20  1  0  0  0  0
 19 41  1  0  0  0  0
 20 21  1  0  0  0  0
 20 42  1  0  0  0  0
 20 43  1  0  0  0  0
 21 22  1  0  0  0  0
 21 44  1  0  0  0  0
 21 45  1  0  0  0  0
 22 23  1  0  0  0  0
 22 46  1  0  0  0  0
 22 47  1  0  0  0  0
 23 24  1  0  0  0  0
 23 26  1  0  0  0  0
 24 25  1  0  0  0  0
 24 48  1  0  0  0  0
 24 49  1  0  0  0  0
 25 50  1  0  0  0  0
 25 51  1  0  0  0  0
 25 52  1  0  0  0  0
 26 27  1  0  0  0  0
 26 53  1  0  0  0  0
 26 54  1  0  0  0  0
 27 55  1  0  0  0  0
 27 56  1  0  0  0  0
 27 57  1  0  0  0  0
 28 29  1  0  0  0  0
 28 58  1  0  0  0  0
 29 30  2  0  0  0  0
 29 31  1  0  0  0  0
 31 34  1  0  0  0  0
 31 59  1  0  0  0  0
 32 34  1  0  0  0  0
 32 60  1  0  0  0  0
 32 61  1  0  0  0  0
 32 62  1  0  0  0  0
 33 34  1  0  0  0  0
 33 63  1  0  0  0  0
 33 64  1  0  0  0  0
 33 65  1  0  0  0  0
 34 35  1  0  0  0  0
 35 66  1  0  0  0  0
 35 67  1  0  0  0  0
 35 68  1  0  0  0  0
M  END
> <From>
www.bindingDB.org

> <BindingDB Reactant_set_id>
50099347

> <Ligand InChI>
InChI=1S/C25H33Cl2N7O/c1-6-34(7-2)13-9-12-28-23-29-15-16-14-17(20-18(26)10-8-11-19(20)27)22(30-21(16)31-23)32-24(35)33-25(3,4)5/h8,10-11,14-15H,6-7,9,12-13H2,1-5H3,(H3,28,29,30,31,32,33,35)

> <Ligand InChI Key>
ULIJLYCJYRQKBG-UHFFFAOYSA-N

> <BindingDB MonomerID>
3431

> <BindingDB Ligand Name>
3-tert-butyl-1-[6-(2,6-dichlorophenyl)-2-{[3-(diethylamino)propyl]amino}pyrido[2,3-d]pyrimidin-7-yl]urea::6-arylpyrido[2,3-d]pyrimidine deriv. 13::CHEMBL299026

> <Target Name Assigned by Curator or DataSource>
VEGF-receptor 2 and tyrosine-protein kinase SRC

> <Target Source Organism According to Curator or DataSource>


> <Ki (nM)>


> <IC50 (nM)>
 73.0

> <Kd (nM)>


> <EC50 (nM)>


> <kon (M-1-s-1)>


> <koff (s-1)>


> <pH>


> <Temp C>


> <Curation/DataSource>
ChEMBL

> <Article DOI>
10.1021/jm970367n

> <PMID>
9240345

> <PubChem AID>


> <PMIDtent Number>


> <Authors>
Hamby, JM; Connolly, CJ; Schroeder, MC; Winters, RT; Showalter, HD; Panek, RL; Major, TC; Olsewski, B; Ryan, MJ; Dahring, T; Lu, GH; Keiser, J; Amar, A; Shen, C; Kraker, AJ; Slintak, V; Nelson, JM; Fry, DW; Bradford, L; Hallak, H; Doherty, AM

> <Institution>
Parke-Davis Pharmaceutical Research

> <Link to Ligand in BindingDB>
http://www.bindingdb.org/bind/chemsearch/marvin/MolStructure.jsp?monomerid=3431

> <Link to Ligand-Target Pair in BindingDB>
http://www.bindingdb.org/jsp/dbsearch/PrimarySearch_ki.jsp?energyterm=kJ/mole&tag=pol&polymerid=13&target=VEGF-receptor+2+and+tyrosine-protein+kinase+SRC&column=ki&startPg=0&Increment=50&submit=Search

> <Link to Ligand-Target Pair in BindingDB>
http://www.bindingdb.org/jsp/dbsearch/PrimarySearch_ki.jsp?energyterm=kJ/mole&tag=r21&monomerid=3431&enzyme=VEGF-receptor+2+and+tyrosine-protein+kinase+SRC&column=ki&startPg=0&Increment=50&submit=Search

> <Ligand HET ID in PDB>


> <PDB ID(s) for Ligand-Target Complex>


> <PubChem CID>
5328115

> <PubChem SID>
8033167

> <ChEBI ID of Ligand>


> <ChEMBL ID of Ligand>
CHEMBL299026

> <DrugBank ID of Ligand>


> <IUPHAR_GRAC ID of Ligand>


> <KEGG ID of Ligand>


> <ZINC ID of Ligand>
ZINC03815508

> <Number of Protein Chains in Target (>1 implies a multichain complex)>
1

> <BindingDB Target Chain Sequence>
MGSNKSKPKDASQRRRSLEPAENVHGAGGGAFPASQTPSKPASADGHRGPSAAFAPAAAEPKLFGGFNSSDTVTSPQRAGPLAGGVTTFVALYDYESRTETDLSFKKGERLQIVNNTEGDWWLAHSLSTGQTGYIPSNYVAPSDSIQAEEWYFGKITRRESERLLLNAENPRGTFLVRESETTKGAYCLSVSDFDNAKGLNVKHYKIRKLDSGGFYITSRTQFNSLQQLVAYYSKHADGLCHRLTTVCPTSKPQTQGLAKDAWEIPRESLRLEVKLGQGCFGEVWMGTWNGTTRVAIKTLKPGTMSPEAFLQEAQVMKKLRHEKLVQLYAVVSEEPIYIVTEYMSKGSLLDFLKGETGKYLRLPQLVDMAAQIASGMAYVERMNYVHRDLRAANILVGENLVCKVADFGLARLIEDNEYTARQGAKFPIKWTAPEAALYGRFTIKSDVWSFGILLTELTTKGRVPYPGMVNREVLDQVERGYRMPCPPECPESLHDLMCQCWRKEPEERPTFEYLQAFLEDYFTSTEPQYQPGENL

> <PDB ID(s) of Target Chain>
1A07,1A08,1A09,1A1B,1A1C,1A1E,1BKL,1BKM,1FMK,1HCS,1HCT,1O41,1O42,1O43,1O44,1O45,1O46,1O47,1O48,1O49,1O4A,1O4B,1O4C,1O4D,1O4E,1O4F,1O4G,1O4H,1O4I,1O4J,1O4K,1O4L,1O4M,1O4N,1O4O,1O4P,1O4Q,1O4R,1SHA,1SHB,1SHD,1SPR,1SPS,1Y57,1YI6,2BDF,2BDJ,2H8H,2PTK,2SRC,4MXO,4MXX,4OML,4OMO

> <UniProt (SwissProt) Recommended Name of Target Chain>
Proto-oncogene tyrosine-protein kinase Src

> <UniProt (SwissProt) Entry Name of Target Chain>
SRC_HUMAN

> <UniProt (SwissProt) Primary ID of Target Chain>
P12931

> <UniProt (SwissProt) Secondary ID(s) of Target Chain>
E1P5V4,Q76P87,Q86VB9,Q9H5A8

> <UniProt (SwissProt) Alternative ID(s) of Target Chain>


> <UniProt (TrEMBL) Submitted Name of Target Chain>


> <UniProt (TrEMBL) Entry Name of Target Chain>


> <UniProt (TrEMBL) Primary ID of Target Chain>


> <UniProt (TrEMBL) Secondary ID(s) of Target Chain>


> <UniProt (TrEMBL) Alternative ID(s) of Target Chain>


$$$$
6-arylpyrido_2_3-d_pyrimidine

Vconf v2.0 Academic SN VC001-00000579
 35 37  0  0  0  0  0  0  0  0999 V2000
   -0.3240    2.9840   -0.0750 C   0  0  0  0  0  0  0  0  0  0  0
   -1.0620    0.8520   -0.7880 C   0  0  0  0  0  0  0  0  0  0  0
    0.7850    2.4060    0.5630 C   0  0  0  0  0  0  0  0  0  0  0
    0.9150    1.0020    0.4840 C   0  0  0  0  0  0  0  0  0  0  0
    1.7560    3.1430    1.2630 C   0  0  0  0  0  0  0  0  0  0  0
    2.9230    1.0790    1.7630 C   0  0  0  0  0  0  0  0  0  0  0
    2.8440    2.4860    1.8760 C   0  0  0  0  0  0  0  0  0  0  0
   -1.2120    2.1960   -0.7290 N   0  0  0  0  0  0  0  0  0  0  0
   -0.0040    0.2660   -0.1830 N   0  0  0  0  0  0  0  0  0  0  0
    1.9700    0.3970    1.0820 N   0  0  0  0  0  0  0  0  0  0  0
    3.8200    3.2370    2.5750 C   0  0  0  0  0  0  0  0  0  0  0
    5.8160    4.6470    2.5690 C   0  0  0  0  0  0  0  0  0  0  0
    4.8520    3.9020    1.8610 C   0  0  0  0  0  0  0  0  0  0  0
    3.7710    3.3270    3.9910 C   0  0  0  0  0  0  0  0  0  0  0
    4.7480    4.0790    4.6730 C   0  0  0  0  0  0  0  0  0  0  0
    5.7650    4.7360    3.9670 C   0  0  0  0  0  0  0  0  0  0  0
   -1.9590    0.1080   -1.4420 N   0  0  0  0  0  0  0  0  0  0  0
    3.9240    0.3720    2.3110 N   0  0  0  0  0  0  0  0  0  0  0
    2.7150    2.6570    4.7790 C   0  0  0  0  0  0  0  0  0  0  0
    4.9540    3.8270    0.3890 C   0  0  0  0  0  0  0  0  0  0  0
   -0.4690    3.9940   -0.0520 H   0  0  0  0  0  0  0  0  0  0  0
    1.6710    4.1600    1.3280 H   0  0  0  0  0  0  0  0  0  0  0
    6.5620    5.1290    2.0660 H   0  0  0  0  0  0  0  0  0  0  0
    4.7210    4.1530    5.6900 H   0  0  0  0  0  0  0  0  0  0  0
    6.4680    5.2790    4.4700 H   0  0  0  0  0  0  0  0  0  0  0
   -1.8490   -0.8540   -1.4830 H   0  0  0  0  0  0  0  0  0  0  0
   -2.7160    0.5330   -1.8730 H   0  0  0  0  0  0  0  0  0  0  0
    3.9430   -0.5920    2.2110 H   0  0  0  0  0  0  0  0  0  0  0
    4.6250    0.8240    2.8050 H   0  0  0  0  0  0  0  0  0  0  0
    2.8230    2.8580    5.8460 H   0  0  0  0  0  0  0  0  0  0  0
    1.7350    3.0170    4.4590 H   0  0  0  0  0  0  0  0  0  0  0
    2.7680    1.5790    4.6260 H   0  0  0  0  0  0  0  0  0  0  0
    5.8210    4.3770    0.0190 H   0  0  0  0  0  0  0  0  0  0  0
    5.0490    2.7850    0.0800 H   0  0  0  0  0  0  0  0  0  0  0
    4.0590    4.2540   -0.0650 H   0  0  0  0  0  0  0  0  0  0  0
  1  3  2  0  0  0  0
  1  8  1  0  0  0  0
  1 21  1  0  0  0  0
  2  8  2  0  0  0  0
  2  9  1  0  0  0  0
  2 17  1  0  0  0  0
  3  4  1  0  0  0  0
  3  5  1  0  0  0  0
  4  9  2  0  0  0  0
  4 10  1  0  0  0  0
  5  7  2  0  0  0  0
  5 22  1  0  0  0  0
  6  7  1  0  0  0  0
  6 10  2  0  0  0  0
  6 18  1  0  0  0  0
  7 11  1  0  0  0  0
 11 13  2  0  0  0  0
 11 14  1  0  0  0  0
 12 13  1  0  0  0  0
 12 16  2  0  0  0  0
 12 23  1  0  0  0  0
 13 20  1  0  0  0  0
 14 15  2  0  0  0  0
 14 19  1  0  0  0  0
 15 16  1  0  0  0  0
 15 24  1  0  0  0  0
 16 25  1  0  0  0  0
 17 26  1  0  0  0  0
 17 27  1  0  0  0  0
 18 28  1  0  0  0  0
 18 29  1  0  0  0  0
 19 30  1  0  0  0  0
 19 31  1  0  0  0  0
 19 32  1  0  0  0  0
 20 33  1  0  0  0  0
 20 34  1  0  0  0  0
 20 35  1  0  0  0  0
M  END
> <From>
www.bindingDB.org

> <BindingDB Reactant_set_id>
5045

> <Ligand InChI>
InChI=1S/C15H15N5/c1-8-4-3-5-9(2)12(8)11-6-10-7-18-15(17)20-14(10)19-13(11)16/h3-7H,1-2H3,(H4,16,17,18,19,20)

> <Ligand InChI Key>
LSHICSIXTRDLPS-UHFFFAOYSA-N

> <BindingDB MonomerID>
3432

> <BindingDB Ligand Name>
6-(2,6-dimethylphenyl)pyrido[2,3-d]pyrimidine-2,7-diamine::6-arylpyrido[2,3-d]pyrimidine deriv. 14

> <Target Name Assigned by Curator or DataSource>
VEGF-receptor 2 and PDGF-receptor beta (KDR and PDGFR beta)

> <Target Source Organism According to Curator or DataSource>
Homo sapiens

> <Ki (nM)>


> <IC50 (nM)>
 29000

> <Kd (nM)>


> <EC50 (nM)>


> <kon (M-1-s-1)>


> <koff (s-1)>


> <pH>
7.4

> <Temp C>
25.00

> <Curation/DataSource>
Curated from the literature by BindingDB

> <Article DOI>


> <PMID>
11384237

> <PubChem AID>


> <Patent Number>


> <Authors>
Schroeder, MC; Hamby, JM; Connolly, CJ; Grohar, PJ; Winters, RT; Barvian, MR; Moore, CW; Boushelle, SL; Crean, SM; Kraker, AJ; Driscoll, DL; Vincent, PW; Elliott, WL; Lu, GH; Batley, BL; Dahring, TK; Major, TC; Panek, RL; Doherty, AM; Showalter, HD

> <Institution>
Pfizer

> <Link to Ligand in BindingDB>
http://www.bindingdb.org/bind/chemsearch/marvin/MolStructure.jsp?monomerid=3432

> <Link to Ligand-Target Pair in BindingDB>
http://www.bindingdb.org/jsp/dbsearch/PrimarySearch_ki.jsp?energyterm=kJ/mole&tag=pol&polymerid=575&target=VEGF-receptor+2+and+PDGF-receptor+beta+%28KDR+and+PDGFR+beta%29&column=ki&startPg=0&Increment=50&submit=Search

> <Link to Ligand-Target Pair in BindingDB>
http://www.bindingdb.org/jsp/dbsearch/PrimarySearch_ki.jsp?energyterm=kJ/mole&tag=r21&monomerid=3432&enzyme=VEGF-receptor+2+and+PDGF-receptor+beta+%28KDR+and+PDGFR+beta%29&column=ki&startPg=0&Increment=50&submit=Search

> <Ligand HET ID in PDB>


> <PDB ID(s) for Ligand-Target Complex>


> <PubChem CID>
5328116

> <PubChem SID>
8033168

> <ChEBI ID of Ligand>


> <ChEMBL ID of Ligand>


> <DrugBank ID of Ligand>


> <IUPHAR_GRAC ID of Ligand>


> <KEGG ID of Ligand>


> <ZINC ID of Ligand>
ZINC13862904

> <Number of Protein Chains in Target (>1 implies a multichain complex)>
1

> <BindingDB Target Chain Sequence>
MRLPGAMPALALKGELLLLSLLLLLEPQISQGLVVTPPGPELVLNVSSTFVLTCSGSAPVVWERMSQEPPQEMAKAQDGTFSSVLTLTNLTGLDTGEYFCTHNDSRGLETDERKRLYIFVPDPTVGFLPNDAEELFIFLTEITEITIPCRVTDPQLVVTLHEKKGDVALPVPYDHQRGFSGIFEDRSYICKTTIGDREVDSDAYYVYRLQVSSINVSVNAVQTVVRQGENITLMCIVIGNEVVNFEWTYPRKESGRLVEPVTDFLLDMPYHIRSILHIPSAELEDSGTYTCNVTESVNDHQDEKAINITVVESGYVRLLGEVGTLQFAELHRSRTLQVVFEAYPPPTVLWFKDNRTLGDSSAGEIALSTRNVSETRYVSELTLVRVKVAEAGHYTMRAFHEDAEVQLSFQLQINVPVRVLELSESHPDSGEQTVRCRGRGMPQPNIIWSACRDLKRCPRELPPTLLGNSSEEESQLETNVTYWEEEQEFEVVSTLRLQHVDRPLSVRCTLRNAVGQDTQEVIVVPHSLPFKVVVISAILALVVLTIISLIILIMLWQKKPRYEIRWKVIESVSSDGHEYIYVDPMQLPYDSTWELPRDQLVLGRTLGSGAFGQVVEATAHGLSHSQATMKVAVKMLKSTARSSEKQALMSELKIMSHLGPHLNVVNLLGACTKGGPIYIITEYCRYGDLVDYLHRNKHTFLQHHSDKRRPPSAELYSNALPVGLPLPSHVSLTGESDGGYMDMSKDESVDYVPMLDMKGDVKYADIESSNYMAPYDNYVPSAPERTCRATLINESPVLSYMDLVGFSYQVANGMEFLASKNCVHRDLAARNVLICEGKLVKICDFGLARDIMRDSNYISKGSTFLPLKWMAPESIFNSLYTTLSDVWSFGILLWEIFTLGGTPYPELPMNEQFYNAIKRGYRMAQPAHASDEIYEIMQKCWEEKFEIRPPFSQLVLLLERLLGEGYKKKYQQVDEEFLRSDHPAILRSQARLPGFHGLRSPLDTSSVLYTAVQPNEGDNDYIIPLPDPKPEVADEGPLEGSPSLASSTLNEVNTSSTISCDSPLEPQDEPEPEPQLELQVEPEPELEQLPDSGCPAPRAEAEDSFL

> <PDB ID(s) of Target Chain>
3MJG

> <UniProt (SwissProt) Recommended Name of Target Chain>
Platelet-derived growth factor receptor beta

> <UniProt (SwissProt) Entry Name of Target Chain>
PGFRB_HUMAN

> <UniProt (SwissProt) Primary ID of Target Chain>
P09619

> <UniProt (SwissProt) Secondary ID(s) of Target Chain>
B5A957,Q8N5L4

> <UniProt (SwissProt) Alternative ID(s) of Target Chain>


> <UniProt (TrEMBL) Submitted Name of Target Chain>


> <UniProt (TrEMBL) Entry Name of Target Chain>


> <UniProt (TrEMBL) Primary ID of Target Chain>


> <UniProt (TrEMBL) Secondary ID(s) of Target Chain>


> <UniProt (TrEMBL) Alternative ID(s) of Target Chain>


$$$$
