    1.9910    3.8560    1.0860 H   0  0  0  0  0  0  0  0  0  0  0
    4.5580    6.7620    3.6090 H   0  0  0  0  0  0  0  0  0  0  0
    2.7200    5.3490    2.9300 H   0  0  0  0  0  0  0  0  0  0  0
    5.3200    3.1170    0.5000 H   0  0  0  0  0  0  0  0  0  0  0
    6.7790    6.3690    2.7560 H   0  0  0  0  0  0  0  0  0  0  0
   -3.3460    1.0380    0.2550 H   0  0  0  0  0  0  0  0  0  0  0
   -2.9370    2.5530    1.0960 H   0  0  0  0  0  0  0  0  0  0  0
   -3.7750    3.8400   -0.8580 H   0  0  0  0  0  0  0  0  0  0  0
   -4.1600    2.3140   -1.6890 H   0  0  0  0  0  0  0  0  0  0  0
   -7.3370    3.2540   -0.1320 H   0  0  0  0  0  0  0  0  0  0  0
   -6.2480    4.3580   -1.0020 H   0  0  0  0  0  0  0  0  0  0  0
   -6.6170    2.7510   -1.6770 H   0  0  0  0  0  0  0  0  0  0  0
   -2.5030    0.5140   -2.2100 H   0  0  0  0  0  0  0  0  0  0  0
   -1.4140   -0.7940   -2.7240 H   0  0  0  0  0  0  0  0  0  0  0
   -3.1450   -2.4600   -2.1770 H   0  0  0  0  0  0  0  0  0  0  0
   -4.2170   -1.1670   -1.5850 H   0  0  0  0  0  0  0  0  0  0  0
   -5.2860   -1.6600   -5.0670 H   0  0  0  0  0  0  0  0  0  0  0
   -4.8230   -2.9980   -3.9930 H   0  0  0  0  0  0  0  0  0  0  0
   -5.8860   -1.6990   -3.3960 H   0  0  0  0  0  0  0  0  0  0  0
    9.3630    4.1670    0.2650 H   0  0  0  0  0  0  0  0  0  0  0
  1  4  2  0  0  0  0
  1 17  1  0  0  0  0
  1 30  1  0  0  0  0
  2  3  1  0  0  0  0
  2 17  2  0  0  0  0
  2 19  1  0  0  0  0
  3  5  2  0  0  0  0
  3 31  1  0  0  0  0
  4  5  1  0  0  0  0
  4  6  1  0  0  0  0
  5  9  1  0  0  0  0
  6  8  2  0  0  0  0
  6 10  1  0  0  0  0
  7  8  1  0  0  0  0
  7  9  2  0  0  0  0
  7 32  1  0  0  0  0
 10 11  1  0  0  0  0
 10 33  1  0  0  0  0
 11 13  2  0  0  0  0
 11 14  1  0  0  0  0
 12 13  1  0  0  0  0
 12 15  2  0  0  0  0
 12 34  1  0  0  0  0
 13 35  1  0  0  0  0
 14 16  2  0  0  0  0
 14 36  1  0  0  0  0
 15 16  1  0  0  0  0
 15 37  1  0  0  0  0
 16 28  1  0  0  0  0
 17 18  1  0  0  0  0
 18 20  1  0  0  0  0
 19 24  1  0  0  0  0
 20 21  1  0  0  0  0
 20 38  1  0  0  0  0
 20 39  1  0  0  0  0
 21 22  1  0  0  0  0
 21 40  1  0  0  0  0
 21 41  1  0  0  0  0
 22 23  1  0  0  0  0
 23 42  1  0  0  0  0
 23 43  1  0  0  0  0
 23 44  1  0  0  0  0
 24 25  1  0  0  0  0
 24 45  1  0  0  0  0
 24 46  1  0  0  0  0
 25 26  1  0  0  0  0
 25 47  1  0  0  0  0
 25 48  1  0  0  0  0
 26 27  1  0  0  0  0
 27 49  1  0  0  0  0
 27 50  1  0  0  0  0
 27 51  1  0  0  0  0
 28 29  3  0  0  0  0
 29 52  1  0  0  0  0
M  END
> <From>
www.bindingDB.org

> <BindingDB Reactant_set_id>
50182400

> <Ligand InChI>
InChI=1S/C22H23N3O4/c1-4-16-6-5-7-17(12-16)25-22-18-13-20(28-10-8-26-2)21(29-11-9-27-3)14-19(18)23-15-24-22/h1,5-7,12-15H,8-11H2,2-3H3,(H,23,24,25)

> <Ligand InChI Key>
AAKJLRGGTJKAMG-UHFFFAOYSA-N

> <BindingDB MonomerID>
5446

> <BindingDB Ligand Name>
CHEMBL553::ERLOTINIB HYDROCHLORIDE::Erlotinib::Erotinib::N-(3-Ethynylphenyl)-6,7-bis(2-methoxyethoxy)-4-quinazolinamine Monohydrochloride::N-(3-ethynylphenyl)-6,7-bis(2-methoxyethoxy)quinazolin-4-amine::OSI-774::Tarceva::cid_176870

> <Target Name Assigned by Curator or DataSource>
PI3-kinase p110-alpha/p85-alpha

> <Target Source Organism According to Curator or DataSource>
Homo sapiens

> <Ki (nM)>


> <IC50 (nM)>


> <Kd (nM)>
>10000

> <EC50 (nM)>


> <kon (M-1-s-1)>


> <koff (s-1)>


> <pH>


> <Temp C>


> <Curation/DataSource>
ChEMBL

> <Article DOI>
10.1038/nbt.1990

> <PMID>
22037378

> <PubChem AID>


> <PMIDtent Number>


> <Authors>
Davis, MI; Hunt, JP; Herrgard, S; Ciceri, P; Wodicka, LM; Pallares, G; Hocker, M; Treiber, DK; Zarrinkar, PP

> <Institution>
Ambit Biosciences

> <Link to Ligand in BindingDB>
http://www.bindingdb.org/bind/chemsearch/marvin/MolStructure.jsp?monomerid=5446

> <Link to Ligand-Target Pair in BindingDB>
http://www.bindingdb.org/jsp/dbsearch/PrimarySearch_ki.jsp?energyterm=kJ/mole&tag=pol&polymerid=1622&target=PI3-kinase+p110-alpha%2Fp85-alpha&column=ki&startPg=0&Increment=50&submit=Search

> <Link to Ligand-Target Pair in BindingDB>
http://www.bindingdb.org/jsp/dbsearch/PrimarySearch_ki.jsp?energyterm=kJ/mole&tag=r21&monomerid=5446&enzyme=PI3-kinase+p110-alpha%2Fp85-alpha&column=ki&startPg=0&Increment=50&submit=Search

> <Ligand HET ID in PDB>
AQ4

> <PDB ID(s) for Ligand-Target Complex>
1M17,4HJO

> <PubChem CID>
176870

> <PubChem SID>
8035065

> <ChEBI ID of Ligand>
114785

> <ChEMBL ID of Ligand>
CHEMBL553

> <DrugBank ID of Ligand>
DB00530

> <IUPHAR_GRAC ID of Ligand>
4920

> <KEGG ID of Ligand>


> <ZINC ID of Ligand>
ZINC01546066

> <Number of Protein Chains in Target (>1 implies a multichain complex)>
1

> <BindingDB Target Chain Sequence>
MPPRPSSGELWGIHLMPPRILVECLLPNGMIVTLECLREATLITIKHELFKEARKYPLHQLLQDESSYIFVSVTQEAEREEFFDETRRLCDLRLFQPFLKVIEPVGNREEKILNREIGFAIGMPVCEFDMVKDPEVQDFRRNILNVCKEAVDLRDLNSPHSRAMYVYPPNVESSPELPKHIYNKLDKGQIIVVIWVIVSPNNDKQKYTLKINHDCVPEQVIAEAIRKKTRSMLLSSEQLKLCVLEYQGKYILKVCGCDEYFLEKYPLSQYKYIRSCIMLGRMPNLMLMAKESLYSQLPMDCFTMPSYSRRISTATPYMNGETSTKSLWVINSALRIKILCATYVNVNIRDIDKIYVRTGIYHGGEPLCDNVNTQRVPCSNPRWNEWLNYDIYIPDLPRAARLCLSICSVKGRKGAKEEHCPLAWGNINLFDYTDTLVSGKMALNLWPVPHGLEDLLNPIGVTGSNPNKETPCLELEFDWFSSVVKFPDMSVIEEHANWSVSREAGFSYSHAGLSNRLARDNELRENDKEQLKAISTRDPLSEITEQEKDFLWSHRHYCVTIPEILPKLLLSVKWNSRDEVAQMYCLVKDWPPIKPEQAMELLDCNYPDPMVRGFAVRCLEKYLTDDKLSQYLIQLVQVLKYEQYLDNLLVRFLLKKALTNQRIGHFFFWHLKSEMHNKTVSQRFGLLLESYCRACGMYLKHLNRQVEAMEKLINLTDILKQEKKDETQKVQMKFLVEQMRRPDFMDALQGFLSPLNPAHQLGNLRLEECRIMSSAKRPLWLNWENPDIMSELLFQNNEIIFKNGDDLRQDMLTLQIIRIMENIWQNQGLDLRMLPYGCLSIGDCVGLIEVVRNSHTIMQIQCKGGLKGALQFNSHTLHQWLKDKNKGEIYDAAIDLFTRSCAGYCVATFILGIGDRHNSNIMVKDDGQLFHIDFGHFLDHKKKKFGYKRERVPFVLTQDFLIVISKGAQECTKTREFERFQEMCYKAYLAIRQHANLFINLFSMMLGSGMPELQSFDDIAYIRKTLALDKTEQEALEYFMKQMNDAHHGGWTTKMDWIFHTIKQHALN

> <PDB ID(s) of Target Chain>
2ENQ,2RD0,2V1Y,3ZIM,4L1B,4L23,4L2Y,4OVU,4OVV,4TUU,4TV3,4YKN,5DXH,5DXT

> <UniProt (SwissProt) Recommended Name of Target Chain>
Phosphatidylinositol 4,5-bisphosphate 3-kinase catalytic subunit alpha isoform

> <UniProt (SwissProt) Entry Name of Target Chain>
PK3CA_HUMAN

> <UniProt (SwissProt) Primary ID of Target Chain>
P42336

> <UniProt (SwissProt) Secondary ID(s) of Target Chain>
Q14CW1,Q99762

> <UniProt (SwissProt) Alternative ID(s) of Target Chain>


> <UniProt (TrEMBL) Submitted Name of Target Chain>


> <UniProt (TrEMBL) Entry Name of Target Chain>


> <UniProt (TrEMBL) Primary ID of Target Chain>


> <UniProt (TrEMBL) Secondary ID(s) of Target Chain>


> <UniProt (TrEMBL) Alternative ID(s) of Target Chain>


$$$$
Tarceva

Vconf v2.0 Academic SN VC001-00000579
 52 54  0  0  0  0  0  0  0  0999 V2000
    0.4090    2.0930    0.3250 C   0  0  0  0  0  0  0  0  0  0  0
   -0.7190   -0.0030   -0.2110 C   0  0  0  0  0  0  0  0  0  0  0
    0.4080   -0.7160    0.2330 C   0  0  0  0  0  0  0  0  0  0  0
